MODEL 1
REMARK VINA RESULT:      -8.5      0.000      0.000
REMARK  3 active torsions:
REMARK  status: ('A' for Active; 'I' for Inactive)
REMARK    1  A    between atoms: C_23  and  C_25 
REMARK    2  A    between atoms: C_25  and  N_26 
REMARK    3  A    between atoms: C_32  and  N_33 
ROOT
HETATM    1  C   UNK     0     -26.745  16.896 -16.572  0.00  0.00     0.000 C 
HETATM    2  O   UNK     0     -27.623  18.127 -16.285  0.00  0.00     0.000 OA
HETATM    3  C   UNK     0     -27.996  18.486 -14.834  0.00  0.00     0.054 A 
HETATM    4  C   UNK     0     -27.489  17.613 -13.671  0.00  0.00     0.052 A 
HETATM    5  C   UNK     0     -27.861  17.971 -12.220  0.00  0.00     0.054 A 
HETATM    6  C   UNK     0     -28.740  19.203 -11.933  0.00  0.00     0.076 A 
HETATM    7  C   UNK     0     -29.246  20.076 -13.096  0.00  0.00     0.095 A 
HETATM    8  N   UNK     0     -28.874  19.718 -14.546  0.00  0.00    -0.306 N 
HETATM    9  C   UNK     0     -30.125  21.307 -12.808  0.00  0.00     0.095 A 
HETATM   10  C   UNK     0     -30.497  21.666 -11.357  0.00  0.00     0.011 A 
HETATM   11  C   UNK     0     -31.376  22.897 -11.070  0.00  0.00     0.034 A 
HETATM   12  C   UNK     0     -31.748  23.256  -9.619  0.00  0.00     0.039 A 
HETATM   13  C   UNK     0     -31.242  22.383  -8.456  0.00  0.00     0.020 A 
HETATM   14  C   UNK     0     -30.363  21.151  -8.744  0.00  0.00     0.079 A 
HETATM   15  C   UNK     0     -29.991  20.793 -10.194  0.00  0.00     0.061 A 
HETATM   16  N   UNK     0     -29.112  19.561 -10.482  0.00  0.00    -0.253 NA
HETATM   17 Cl   UNK     0     -31.614  22.742  -7.005  0.00  0.00    -0.091 Cl
HETATM   18  N   UNK     0     -30.632  22.180 -13.971  0.00  0.00    -0.247 NA
HETATM   19  C   UNK     0     -30.259  21.822 -15.422  0.00  0.00     0.079 A 
HETATM   20  C   UNK     0     -29.381  20.591 -15.710  0.00  0.00     0.081 A 
HETATM   21  C   UNK     0     -29.009  20.232 -17.160  0.00  0.00     0.059 A 
HETATM   22  C   UNK     0     -29.515  21.105 -18.324  0.00  0.00     0.128 A 
HETATM   23  C   UNK     0     -30.394  22.337 -18.036  0.00  0.00     0.009 A 
HETATM   24  C   UNK     0     -30.766  22.695 -16.586  0.00  0.00     0.073 A 
HETATM   25  O   UNK     0     -29.143  20.746 -19.774  0.00  0.00    -0.191 OA
HETATM   26  C   UNK     0     -28.130  19.000 -17.448  0.00  0.00     0.075 A 
ENDROOT
BRANCH  23  27
HETATM   27  C   UNK     0     -30.900  23.210 -19.199  0.00  0.00     0.122 C 
BRANCH  27  28
HETATM   28  N   UNK     0     -29.903  24.031 -20.036  0.00  0.00    -0.365 N 
HETATM   29  C   UNK     0     -30.131  24.542 -21.472  0.00  0.00     0.097 A 
HETATM   30  C   UNK     0     -28.871  25.312 -21.908  0.00  0.00     0.026 A 
HETATM   31  C   UNK     0     -27.864  25.277 -20.743  0.00  0.00     0.026 A 
HETATM   32  C   UNK     0     -28.502  24.485 -19.587  0.00  0.00     0.097 A 
ENDBRANCH  27  28
ENDBRANCH  23  27
BRANCH  26  33
HETATM   33  N   UNK     0     -27.758  18.642 -18.898  0.00  0.00    -0.347 N 
HETATM   34  C   UNK     0     -26.516  19.136 -19.663  0.00  0.00     0.102 A 
HETATM   35  C   UNK     0     -26.552  18.527 -21.077  0.00  0.00     0.026 A 
HETATM   36  C   UNK     0     -27.817  17.655 -21.186  0.00  0.00     0.026 A 
HETATM   37  C   UNK     0     -28.563  17.726 -19.840  0.00  0.00     0.102 A 
ENDBRANCH  26  33
TORSDOF 3
ENDMDL
MODEL 2
REMARK VINA RESULT:      -8.3      7.604     11.323
REMARK  3 active torsions:
REMARK  status: ('A' for Active; 'I' for Inactive)
REMARK    1  A    between atoms: C_23  and  C_25 
REMARK    2  A    between atoms: C_25  and  N_26 
REMARK    3  A    between atoms: C_32  and  N_33 
ROOT
HETATM    1  C   UNK     0     -30.503  27.715 -19.636  0.00  0.00     0.000 C 
HETATM    2  O   UNK     0     -31.229  28.051 -18.321  0.00  0.00     0.000 OA
HETATM    3  C   UNK     0     -32.552  28.839 -18.351  0.00  0.00     0.054 A 
HETATM    4  C   UNK     0     -33.148  29.292 -19.697  0.00  0.00     0.052 A 
HETATM    5  C   UNK     0     -34.471  30.080 -19.726  0.00  0.00     0.054 A 
HETATM    6  C   UNK     0     -35.197  30.415 -18.411  0.00  0.00     0.076 A 
HETATM    7  C   UNK     0     -34.600  29.962 -17.065  0.00  0.00     0.095 A 
HETATM    8  N   UNK     0     -33.278  29.174 -17.035  0.00  0.00    -0.306 N 
HETATM    9  C   UNK     0     -35.327  30.298 -15.749  0.00  0.00     0.095 A 
HETATM   10  C   UNK     0     -36.650  31.086 -15.779  0.00  0.00     0.011 A 
HETATM   11  C   UNK     0     -37.376  31.421 -14.463  0.00  0.00     0.034 A 
HETATM   12  C   UNK     0     -38.699  32.209 -14.493  0.00  0.00     0.039 A 
HETATM   13  C   UNK     0     -39.295  32.662 -15.839  0.00  0.00     0.020 A 
HETATM   14  C   UNK     0     -38.569  32.327 -17.155  0.00  0.00     0.079 A 
HETATM   15  C   UNK     0     -37.246  31.539 -17.125  0.00  0.00     0.061 A 
HETATM   16  N   UNK     0     -36.520  31.203 -18.441  0.00  0.00    -0.253 NA
HETATM   17 Cl   UNK     0     -40.618  33.450 -15.869  0.00  0.00    -0.091 Cl
HETATM   18  N   UNK     0     -34.731  29.845 -14.403  0.00  0.00    -0.247 NA
HETATM   19  C   UNK     0     -33.408  29.057 -14.374  0.00  0.00     0.079 A 
HETATM   20  C   UNK     0     -32.682  28.721 -15.689  0.00  0.00     0.081 A 
HETATM   21  C   UNK     0     -31.359  27.933 -15.659  0.00  0.00     0.059 A 
HETATM   22  C   UNK     0     -30.763  27.480 -14.313  0.00  0.00     0.128 A 
HETATM   23  C   UNK     0     -31.490  27.816 -12.997  0.00  0.00     0.009 A 
HETATM   24  C   UNK     0     -32.812  28.604 -13.028  0.00  0.00     0.073 A 
HETATM   25  O   UNK     0     -29.440  26.692 -14.284  0.00  0.00    -0.191 OA
HETATM   26  C   UNK     0     -30.632  27.598 -16.975  0.00  0.00     0.075 A 
ENDROOT
BRANCH  23  27
HETATM   27  C   UNK     0     -30.893  27.363 -11.652  0.00  0.00     0.122 C 
BRANCH  27  28
HETATM   28  N   UNK     0     -31.425  26.093 -10.962  0.00  0.00    -0.365 N 
HETATM   29  C   UNK     0     -30.665  25.236  -9.932  0.00  0.00     0.097 A 
HETATM   30  C   UNK     0     -31.581  24.070  -9.515  0.00  0.00     0.026 A 
HETATM   31  C   UNK     0     -32.906  24.206 -10.288  0.00  0.00     0.026 A 
HETATM   32  C   UNK     0     -32.810  25.456 -11.182  0.00  0.00     0.097 A 
ENDBRANCH  27  28
ENDBRANCH  23  27
BRANCH  26  33
HETATM   33  N   UNK     0     -29.310  26.810 -16.945  0.00  0.00    -0.347 N 
HETATM   34  C   UNK     0     -29.167  25.278 -17.019  0.00  0.00     0.102 A 
HETATM   35  C   UNK     0     -27.667  24.936 -16.955  0.00  0.00     0.026 A 
HETATM   36  C   UNK     0     -26.882  26.256 -16.841  0.00  0.00     0.026 A 
HETATM   37  C   UNK     0     -27.898  27.415 -16.835  0.00  0.00     0.102 A 
ENDBRANCH  26  33
TORSDOF 3
ENDMDL
MODEL 3
REMARK VINA RESULT:      -8.2     13.188     17.018
REMARK  3 active torsions:
REMARK  status: ('A' for Active; 'I' for Inactive)
REMARK    1  A    between atoms: C_23  and  C_25 
REMARK    2  A    between atoms: C_25  and  N_26 
REMARK    3  A    between atoms: C_32  and  N_33 
ROOT
HETATM    1  C   UNK     0     -34.591   9.160 -31.363  0.00  0.00     0.000 C 
HETATM    2  O   UNK     0     -34.867   9.840 -30.010  0.00  0.00     0.000 OA
HETATM    3  C   UNK     0     -36.282   9.801 -29.404  0.00  0.00     0.054 A 
HETATM    4  C   UNK     0     -37.421   9.083 -30.151  0.00  0.00     0.052 A 
HETATM    5  C   UNK     0     -38.836   9.044 -29.544  0.00  0.00     0.054 A 
HETATM    6  C   UNK     0     -39.112   9.724 -28.191  0.00  0.00     0.076 A 
HETATM    7  C   UNK     0     -37.974  10.443 -27.444  0.00  0.00     0.095 A 
HETATM    8  N   UNK     0     -36.559  10.482 -28.050  0.00  0.00    -0.306 N 
HETATM    9  C   UNK     0     -38.250  11.123 -26.090  0.00  0.00     0.095 A 
HETATM   10  C   UNK     0     -39.666  11.085 -25.483  0.00  0.00     0.011 A 
HETATM   11  C   UNK     0     -39.942  11.765 -24.130  0.00  0.00     0.034 A 
HETATM   12  C   UNK     0     -41.357  11.727 -23.523  0.00  0.00     0.039 A 
HETATM   13  C   UNK     0     -42.495  11.008 -24.271  0.00  0.00     0.020 A 
HETATM   14  C   UNK     0     -42.219  10.327 -25.625  0.00  0.00     0.079 A 
HETATM   15  C   UNK     0     -40.804  10.366 -26.231  0.00  0.00     0.061 A 
HETATM   16  N   UNK     0     -40.528   9.686 -27.584  0.00  0.00    -0.253 NA
HETATM   17 Cl   UNK     0     -43.911  10.969 -23.664  0.00  0.00    -0.091 Cl
HETATM   18  N   UNK     0     -37.112  11.842 -25.343  0.00  0.00    -0.247 NA
HETATM   19  C   UNK     0     -35.696  11.880 -25.949  0.00  0.00     0.079 A 
HETATM   20  C   UNK     0     -35.420  11.200 -27.302  0.00  0.00     0.081 A 
HETATM   21  C   UNK     0     -34.005  11.239 -27.909  0.00  0.00     0.059 A 
HETATM   22  C   UNK     0     -32.866  11.958 -27.162  0.00  0.00     0.128 A 
HETATM   23  C   UNK     0     -33.143  12.638 -25.808  0.00  0.00     0.009 A 
HETATM   24  C   UNK     0     -34.558  12.599 -25.202  0.00  0.00     0.073 A 
HETATM   25  O   UNK     0     -31.451  11.996 -27.768  0.00  0.00    -0.191 OA
HETATM   26  C   UNK     0     -33.728  10.559 -29.263  0.00  0.00     0.075 A 
ENDROOT
BRANCH  23  27
HETATM   27  C   UNK     0     -32.004  13.357 -25.060  0.00  0.00     0.122 C 
BRANCH  27  28
HETATM   28  N   UNK     0     -32.217  14.783 -24.522  0.00  0.00    -0.365 N 
HETATM   29  C   UNK     0     -33.212  15.197 -23.422  0.00  0.00     0.097 A 
HETATM   30  C   UNK     0     -33.081  16.718 -23.210  0.00  0.00     0.026 A 
HETATM   31  C   UNK     0     -32.005  17.243 -24.178  0.00  0.00     0.026 A 
HETATM   32  C   UNK     0     -31.471  16.047 -24.989  0.00  0.00     0.097 A 
ENDBRANCH  27  28
ENDBRANCH  23  27
BRANCH  26  33
HETATM   33  N   UNK     0     -32.314  10.597 -29.869  0.00  0.00    -0.347 N 
HETATM   34  C   UNK     0     -31.196   9.566 -29.625  0.00  0.00     0.102 A 
HETATM   35  C   UNK     0     -29.959  10.005 -30.430  0.00  0.00     0.026 A 
HETATM   36  C   UNK     0     -30.312  11.308 -31.172  0.00  0.00     0.026 A 
HETATM   37  C   UNK     0     -31.767  11.674 -30.825  0.00  0.00     0.102 A 
ENDBRANCH  26  33
TORSDOF 3
ENDMDL
MODEL 4
REMARK VINA RESULT:      -7.9     11.411     15.485
REMARK  3 active torsions:
REMARK  status: ('A' for Active; 'I' for Inactive)
REMARK    1  A    between atoms: C_23  and  C_25 
REMARK    2  A    between atoms: C_25  and  N_26 
REMARK    3  A    between atoms: C_32  and  N_33 
ROOT
HETATM    1  C   UNK     0     -38.630  11.110 -24.879  0.00  0.00     0.000 C 
HETATM    2  O   UNK     0     -37.207  11.453 -25.356  0.00  0.00     0.000 OA
HETATM    3  C   UNK     0     -36.233  12.181 -24.411  0.00  0.00     0.054 A 
HETATM    4  C   UNK     0     -36.683  12.566 -22.989  0.00  0.00     0.052 A 
HETATM    5  C   UNK     0     -35.709  13.295 -22.044  0.00  0.00     0.054 A 
HETATM    6  C   UNK     0     -34.286  13.638 -22.521  0.00  0.00     0.076 A 
HETATM    7  C   UNK     0     -33.836  13.253 -23.943  0.00  0.00     0.095 A 
HETATM    8  N   UNK     0     -34.810  12.525 -24.888  0.00  0.00    -0.306 N 
HETATM    9  C   UNK     0     -32.413  13.597 -24.419  0.00  0.00     0.095 A 
HETATM   10  C   UNK     0     -31.439  14.325 -23.474  0.00  0.00     0.011 A 
HETATM   11  C   UNK     0     -30.016  14.668 -23.951  0.00  0.00     0.034 A 
HETATM   12  C   UNK     0     -29.042  15.397 -23.006  0.00  0.00     0.039 A 
HETATM   13  C   UNK     0     -29.492  15.782 -21.584  0.00  0.00     0.020 A 
HETATM   14  C   UNK     0     -30.915  15.438 -21.108  0.00  0.00     0.079 A 
HETATM   15  C   UNK     0     -31.888  14.710 -22.053  0.00  0.00     0.061 A 
HETATM   16  N   UNK     0     -33.312  14.367 -21.576  0.00  0.00    -0.253 NA
HETATM   17 Cl   UNK     0     -28.518  16.510 -20.639  0.00  0.00    -0.091 Cl
HETATM   18  N   UNK     0     -31.963  13.212 -25.841  0.00  0.00    -0.247 NA
HETATM   19  C   UNK     0     -32.937  12.483 -26.786  0.00  0.00     0.079 A 
HETATM   20  C   UNK     0     -34.360  12.140 -26.309  0.00  0.00     0.081 A 
HETATM   21  C   UNK     0     -35.334  11.411 -27.254  0.00  0.00     0.059 A 
HETATM   22  C   UNK     0     -34.884  11.026 -28.676  0.00  0.00     0.128 A 
HETATM   23  C   UNK     0     -33.460  11.370 -29.152  0.00  0.00     0.009 A 
HETATM   24  C   UNK     0     -32.487  12.098 -28.208  0.00  0.00     0.073 A 
HETATM   25  O   UNK     0     -35.858  10.298 -29.621  0.00  0.00    -0.191 OA
HETATM   26  C   UNK     0     -36.757  11.068 -26.778  0.00  0.00     0.075 A 
ENDROOT
BRANCH  23  27
HETATM   27  C   UNK     0     -33.010  10.985 -30.574  0.00  0.00     0.122 C 
BRANCH  27  28
HETATM   28  N   UNK     0     -31.653  10.291 -30.791  0.00  0.00    -0.365 N 
HETATM   29  C   UNK     0     -30.349  10.973 -31.243  0.00  0.00     0.097 A 
HETATM   30  C   UNK     0     -29.251   9.895 -31.325  0.00  0.00     0.026 A 
HETATM   31  C   UNK     0     -29.878   8.546 -30.924  0.00  0.00     0.026 A 
HETATM   32  C   UNK     0     -31.362   8.791 -30.594  0.00  0.00     0.097 A 
ENDBRANCH  27  28
ENDBRANCH  23  27
BRANCH  26  33
HETATM   33  N   UNK     0     -37.731  10.340 -27.723  0.00  0.00    -0.347 N 
HETATM   34  C   UNK     0     -37.815   8.817 -27.938  0.00  0.00     0.102 A 
HETATM   35  C   UNK     0     -38.927   8.542 -28.967  0.00  0.00     0.026 A 
HETATM   36  C   UNK     0     -39.531   9.894 -29.388  0.00  0.00     0.026 A 
HETATM   37  C   UNK     0     -38.791  11.006 -28.619  0.00  0.00     0.102 A 
ENDBRANCH  26  33
TORSDOF 3
ENDMDL
MODEL 5
REMARK VINA RESULT:      -7.7     11.480     14.379
REMARK  3 active torsions:
REMARK  status: ('A' for Active; 'I' for Inactive)
REMARK    1  A    between atoms: C_23  and  C_25 
REMARK    2  A    between atoms: C_25  and  N_26 
REMARK    3  A    between atoms: C_32  and  N_33 
ROOT
HETATM    1  C   UNK     0     -40.192  28.829 -21.128  0.00  0.00     0.000 C 
HETATM    2  O   UNK     0     -39.186  27.821 -21.712  0.00  0.00     0.000 OA
HETATM    3  C   UNK     0     -37.707  28.216 -21.876  0.00  0.00     0.054 A 
HETATM    4  C   UNK     0     -37.233  29.619 -21.455  0.00  0.00     0.052 A 
HETATM    5  C   UNK     0     -35.754  30.015 -21.618  0.00  0.00     0.054 A 
HETATM    6  C   UNK     0     -34.748  29.006 -22.203  0.00  0.00     0.076 A 
HETATM    7  C   UNK     0     -35.221  27.603 -22.624  0.00  0.00     0.095 A 
HETATM    8  N   UNK     0     -36.700  27.207 -22.461  0.00  0.00    -0.306 N 
HETATM    9  C   UNK     0     -34.215  26.594 -23.209  0.00  0.00     0.095 A 
HETATM   10  C   UNK     0     -32.735  26.989 -23.373  0.00  0.00     0.011 A 
HETATM   11  C   UNK     0     -31.729  25.981 -23.957  0.00  0.00     0.034 A 
HETATM   12  C   UNK     0     -30.249  26.376 -24.121  0.00  0.00     0.039 A 
HETATM   13  C   UNK     0     -29.776  27.780 -23.700  0.00  0.00     0.020 A 
HETATM   14  C   UNK     0     -30.783  28.788 -23.115  0.00  0.00     0.079 A 
HETATM   15  C   UNK     0     -32.262  28.393 -22.951  0.00  0.00     0.061 A 
HETATM   16  N   UNK     0     -33.268  29.401 -22.366  0.00  0.00    -0.253 NA
HETATM   17 Cl   UNK     0     -28.297  28.175 -23.863  0.00  0.00    -0.091 Cl
HETATM   18  N   UNK     0     -34.688  25.191 -23.631  0.00  0.00    -0.247 NA
HETATM   19  C   UNK     0     -36.167  24.795 -23.467  0.00  0.00     0.079 A 
HETATM   20  C   UNK     0     -37.173  25.804 -22.882  0.00  0.00     0.081 A 
HETATM   21  C   UNK     0     -38.653  25.409 -22.719  0.00  0.00     0.059 A 
HETATM   22  C   UNK     0     -39.126  24.005 -23.140  0.00  0.00     0.128 A 
HETATM   23  C   UNK     0     -38.119  22.996 -23.725  0.00  0.00     0.009 A 
HETATM   24  C   UNK     0     -36.641  23.392 -23.888  0.00  0.00     0.073 A 
HETATM   25  O   UNK     0     -40.606  23.610 -22.976  0.00  0.00    -0.191 OA
HETATM   26  C   UNK     0     -39.659  26.417 -22.134  0.00  0.00     0.075 A 
ENDROOT
BRANCH  23  27
HETATM   27  C   UNK     0     -38.592  21.593 -24.146  0.00  0.00     0.122 C 
BRANCH  27  28
HETATM   28  N   UNK     0     -39.442  21.416 -25.418  0.00  0.00    -0.365 N 
HETATM   29  C   UNK     0     -40.017  20.088 -25.946  0.00  0.00     0.097 A 
HETATM   30  C   UNK     0     -40.796  20.388 -27.240  0.00  0.00     0.026 A 
HETATM   31  C   UNK     0     -40.703  21.901 -27.512  0.00  0.00     0.026 A 
HETATM   32  C   UNK     0     -39.866  22.536 -26.386  0.00  0.00     0.097 A 
ENDBRANCH  27  28
ENDBRANCH  23  27
BRANCH  26  33
HETATM   33  N   UNK     0     -41.138  26.022 -21.970  0.00  0.00    -0.347 N 
HETATM   34  C   UNK     0     -42.239  26.174 -23.037  0.00  0.00     0.102 A 
HETATM   35  C   UNK     0     -43.558  25.651 -22.438  0.00  0.00     0.026 A 
HETATM   36  C   UNK     0     -43.273  25.175 -21.001  0.00  0.00     0.026 A 
HETATM   37  C   UNK     0     -41.777  25.404 -20.712  0.00  0.00     0.102 A 
ENDBRANCH  26  33
TORSDOF 3
ENDMDL
MODEL 6
REMARK VINA RESULT:      -7.7      8.741     11.509
REMARK  3 active torsions:
REMARK  status: ('A' for Active; 'I' for Inactive)
REMARK    1  A    between atoms: C_23  and  C_25 
REMARK    2  A    between atoms: C_25  and  N_26 
REMARK    3  A    between atoms: C_32  and  N_33 
ROOT
HETATM    1  C   UNK     0     -35.623  31.652 -16.201  0.00  0.00     0.000 C 
HETATM    2  O   UNK     0     -35.825  30.243 -15.614  0.00  0.00     0.000 OA
HETATM    3  C   UNK     0     -34.808  29.676 -14.606  0.00  0.00     0.054 A 
HETATM    4  C   UNK     0     -33.590  30.518 -14.185  0.00  0.00     0.052 A 
HETATM    5  C   UNK     0     -32.573  29.951 -13.176  0.00  0.00     0.054 A 
HETATM    6  C   UNK     0     -32.775  28.542 -12.590  0.00  0.00     0.076 A 
HETATM    7  C   UNK     0     -33.994  27.700 -13.011  0.00  0.00     0.095 A 
HETATM    8  N   UNK     0     -35.010  28.266 -14.018  0.00  0.00    -0.306 N 
HETATM    9  C   UNK     0     -34.195  26.290 -12.423  0.00  0.00     0.095 A 
HETATM   10  C   UNK     0     -33.179  25.723 -11.415  0.00  0.00     0.011 A 
HETATM   11  C   UNK     0     -33.381  24.314 -10.828  0.00  0.00     0.034 A 
HETATM   12  C   UNK     0     -32.364  23.747  -9.820  0.00  0.00     0.039 A 
HETATM   13  C   UNK     0     -31.145  24.589  -9.399  0.00  0.00     0.020 A 
HETATM   14  C   UNK     0     -30.944  25.999  -9.986  0.00  0.00     0.079 A 
HETATM   15  C   UNK     0     -31.960  26.565 -10.994  0.00  0.00     0.061 A 
HETATM   16  N   UNK     0     -31.758  27.975 -11.581  0.00  0.00    -0.253 NA
HETATM   17 Cl   UNK     0     -30.129  24.022  -8.390  0.00  0.00    -0.091 Cl
HETATM   18  N   UNK     0     -35.414  25.448 -12.844  0.00  0.00    -0.247 NA
HETATM   19  C   UNK     0     -36.431  26.015 -13.853  0.00  0.00     0.079 A 
HETATM   20  C   UNK     0     -36.228  27.424 -14.440  0.00  0.00     0.081 A 
HETATM   21  C   UNK     0     -37.245  27.991 -15.448  0.00  0.00     0.059 A 
HETATM   22  C   UNK     0     -38.464  27.149 -15.869  0.00  0.00     0.128 A 
HETATM   23  C   UNK     0     -38.666  25.739 -15.282  0.00  0.00     0.009 A 
HETATM   24  C   UNK     0     -37.649  25.173 -14.274  0.00  0.00     0.073 A 
HETATM   25  O   UNK     0     -39.480  27.716 -16.878  0.00  0.00    -0.191 OA
HETATM   26  C   UNK     0     -37.043  29.400 -16.035  0.00  0.00     0.075 A 
ENDROOT
BRANCH  23  27
HETATM   27  C   UNK     0     -39.884  24.897 -15.703  0.00  0.00     0.122 C 
BRANCH  27  28
HETATM   28  N   UNK     0     -40.055  23.466 -15.162  0.00  0.00    -0.365 N 
HETATM   29  C   UNK     0     -39.321  22.211 -15.673  0.00  0.00     0.097 A 
HETATM   30  C   UNK     0     -39.803  21.007 -14.841  0.00  0.00     0.026 A 
HETATM   31  C   UNK     0     -40.834  21.518 -13.817  0.00  0.00     0.026 A 
HETATM   32  C   UNK     0     -40.989  23.037 -14.015  0.00  0.00     0.097 A 
ENDBRANCH  27  28
ENDBRANCH  23  27
BRANCH  26  33
HETATM   33  N   UNK     0     -38.060  29.967 -17.043  0.00  0.00    -0.347 N 
HETATM   34  C   UNK     0     -38.000  29.810 -18.574  0.00  0.00     0.102 A 
HETATM   35  C   UNK     0     -39.218  30.536 -19.176  0.00  0.00     0.026 A 
HETATM   36  C   UNK     0     -40.031  31.142 -18.016  0.00  0.00     0.026 A 
HETATM   37  C   UNK     0     -39.315  30.790 -16.698  0.00  0.00     0.102 A 
ENDBRANCH  26  33
TORSDOF 3
ENDMDL
MODEL 7
REMARK VINA RESULT:      -7.6     18.123     21.860
REMARK  3 active torsions:
REMARK  status: ('A' for Active; 'I' for Inactive)
REMARK    1  A    between atoms: C_23  and  C_25 
REMARK    2  A    between atoms: C_25  and  N_26 
REMARK    3  A    between atoms: C_32  and  N_33 
ROOT
HETATM    1  C   UNK     0     -17.577  15.124   2.257  0.00  0.00     0.000 C 
HETATM    2  O   UNK     0     -19.065  14.869   2.556  0.00  0.00     0.000 OA
HETATM    3  C   UNK     0     -19.480  13.687   3.452  0.00  0.00     0.054 A 
HETATM    4  C   UNK     0     -18.405  12.760   4.049  0.00  0.00     0.052 A 
HETATM    5  C   UNK     0     -18.819  11.578   4.945  0.00  0.00     0.054 A 
HETATM    6  C   UNK     0     -20.308  11.323   5.244  0.00  0.00     0.076 A 
HETATM    7  C   UNK     0     -21.383  12.251   4.647  0.00  0.00     0.095 A 
HETATM    8  N   UNK     0     -20.969  13.432   3.751  0.00  0.00    -0.306 N 
HETATM    9  C   UNK     0     -22.872  11.996   4.946  0.00  0.00     0.095 A 
HETATM   10  C   UNK     0     -23.286  10.813   5.843  0.00  0.00     0.011 A 
HETATM   11  C   UNK     0     -24.775  10.559   6.141  0.00  0.00     0.034 A 
HETATM   12  C   UNK     0     -25.189   9.377   7.038  0.00  0.00     0.039 A 
HETATM   13  C   UNK     0     -24.114   8.450   7.634  0.00  0.00     0.020 A 
HETATM   14  C   UNK     0     -22.625   8.704   7.335  0.00  0.00     0.079 A 
HETATM   15  C   UNK     0     -22.211   9.886   6.439  0.00  0.00     0.061 A 
HETATM   16  N   UNK     0     -20.722  10.141   6.140  0.00  0.00    -0.253 NA
HETATM   17 Cl   UNK     0     -24.529   7.267   8.531  0.00  0.00    -0.091 Cl
HETATM   18  N   UNK     0     -23.947  12.923   4.349  0.00  0.00    -0.247 NA
HETATM   19  C   UNK     0     -23.532  14.105   3.453  0.00  0.00     0.079 A 
HETATM   20  C   UNK     0     -22.044  14.360   3.154  0.00  0.00     0.081 A 
HETATM   21  C   UNK     0     -21.629  15.542   2.258  0.00  0.00     0.059 A 
HETATM   22  C   UNK     0     -22.704  16.469   1.661  0.00  0.00     0.128 A 
HETATM   23  C   UNK     0     -24.193  16.214   1.961  0.00  0.00     0.009 A 
HETATM   24  C   UNK     0     -24.607  15.033   2.856  0.00  0.00     0.073 A 
HETATM   25  O   UNK     0     -22.290  17.651   0.765  0.00  0.00    -0.191 OA
HETATM   26  C   UNK     0     -20.140  15.797   1.959  0.00  0.00     0.075 A 
ENDROOT
BRANCH  23  27
HETATM   27  C   UNK     0     -25.268  17.142   1.364  0.00  0.00     0.122 C 
BRANCH  27  28
HETATM   28  N   UNK     0     -25.287  18.636   1.732  0.00  0.00    -0.365 N 
HETATM   29  C   UNK     0     -24.533  19.289   2.907  0.00  0.00     0.097 A 
HETATM   30  C   UNK     0     -24.843  20.798   2.891  0.00  0.00     0.026 A 
HETATM   31  C   UNK     0     -25.788  21.078   1.707  0.00  0.00     0.026 A 
HETATM   32  C   UNK     0     -26.062  19.742   0.992  0.00  0.00     0.097 A 
ENDBRANCH  27  28
ENDBRANCH  23  27
BRANCH  26  33
HETATM   33  N   UNK     0     -19.726  16.978   1.063  0.00  0.00    -0.347 N 
HETATM   34  C   UNK     0     -19.581  16.945  -0.469  0.00  0.00     0.102 A 
HETATM   35  C   UNK     0     -19.150  18.347  -0.938  0.00  0.00     0.026 A 
HETATM   36  C   UNK     0     -19.029  19.248   0.305  0.00  0.00     0.026 A 
HETATM   37  C   UNK     0     -19.385  18.402   1.543  0.00  0.00     0.102 A 
ENDBRANCH  26  33
TORSDOF 3
ENDMDL
MODEL 8
REMARK VINA RESULT:      -7.5     11.566     14.748
REMARK  3 active torsions:
REMARK  status: ('A' for Active; 'I' for Inactive)
REMARK    1  A    between atoms: C_23  and  C_25 
REMARK    2  A    between atoms: C_25  and  N_26 
REMARK    3  A    between atoms: C_32  and  N_33 
ROOT
HETATM    1  C   UNK     0     -40.158  26.293 -22.968  0.00  0.00     0.000 C 
HETATM    2  O   UNK     0     -39.166  27.251 -22.284  0.00  0.00     0.000 OA
HETATM    3  C   UNK     0     -37.684  27.253 -22.703  0.00  0.00     0.054 A 
HETATM    4  C   UNK     0     -37.195  26.295 -23.805  0.00  0.00     0.052 A 
HETATM    5  C   UNK     0     -35.712  26.296 -24.224  0.00  0.00     0.054 A 
HETATM    6  C   UNK     0     -34.720  27.254 -23.540  0.00  0.00     0.076 A 
HETATM    7  C   UNK     0     -35.210  28.212 -22.438  0.00  0.00     0.095 A 
HETATM    8  N   UNK     0     -36.691  28.211 -22.019  0.00  0.00    -0.306 N 
HETATM    9  C   UNK     0     -34.217  29.171 -21.754  0.00  0.00     0.095 A 
HETATM   10  C   UNK     0     -32.735  29.172 -22.172  0.00  0.00     0.011 A 
HETATM   11  C   UNK     0     -31.743  30.130 -21.489  0.00  0.00     0.034 A 
HETATM   12  C   UNK     0     -30.260  30.131 -21.907  0.00  0.00     0.039 A 
HETATM   13  C   UNK     0     -29.771  29.174 -23.010  0.00  0.00     0.020 A 
HETATM   14  C   UNK     0     -30.764  28.215 -23.694  0.00  0.00     0.079 A 
HETATM   15  C   UNK     0     -32.245  28.214 -23.275  0.00  0.00     0.061 A 
HETATM   16  N   UNK     0     -33.238  27.256 -23.959  0.00  0.00    -0.253 NA
HETATM   17 Cl   UNK     0     -28.289  29.175 -23.428  0.00  0.00    -0.091 Cl
HETATM   18  N   UNK     0     -34.706  30.128 -20.651  0.00  0.00    -0.247 NA
HETATM   19  C   UNK     0     -36.189  30.127 -20.233  0.00  0.00     0.079 A 
HETATM   20  C   UNK     0     -37.181  29.169 -20.917  0.00  0.00     0.081 A 
HETATM   21  C   UNK     0     -38.663  29.167 -20.498  0.00  0.00     0.059 A 
HETATM   22  C   UNK     0     -39.152  30.125 -19.395  0.00  0.00     0.128 A 
HETATM   23  C   UNK     0     -38.159  31.084 -18.712  0.00  0.00     0.009 A 
HETATM   24  C   UNK     0     -36.678  31.084 -19.130  0.00  0.00     0.073 A 
HETATM   25  O   UNK     0     -40.635  30.124 -18.977  0.00  0.00    -0.191 OA
HETATM   26  C   UNK     0     -39.656  28.209 -21.182  0.00  0.00     0.075 A 
ENDROOT
BRANCH  23  27
HETATM   27  C   UNK     0     -38.649  32.041 -17.609  0.00  0.00     0.122 C 
BRANCH  27  28
HETATM   28  N   UNK     0     -38.153  31.867 -16.162  0.00  0.00    -0.365 N 
HETATM   29  C   UNK     0     -38.405  32.840 -14.995  0.00  0.00     0.097 A 
HETATM   30  C   UNK     0     -37.726  32.263 -13.739  0.00  0.00     0.026 A 
HETATM   31  C   UNK     0     -37.054  30.933 -14.130  0.00  0.00     0.026 A 
HETATM   32  C   UNK     0     -37.318  30.689 -15.627  0.00  0.00     0.097 A 
ENDBRANCH  27  28
ENDBRANCH  23  27
BRANCH  26  33
HETATM   33  N   UNK     0     -41.137  28.208 -20.763  0.00  0.00    -0.347 N 
HETATM   34  C   UNK     0     -42.256  29.058 -21.393  0.00  0.00     0.102 A 
HETATM   35  C   UNK     0     -43.572  28.733 -20.661  0.00  0.00     0.026 A 
HETATM   36  C   UNK     0     -43.265  27.682 -19.577  0.00  0.00     0.026 A 
HETATM   37  C   UNK     0     -41.760  27.357 -19.640  0.00  0.00     0.102 A 
ENDBRANCH  26  33
TORSDOF 3
ENDMDL
MODEL 9
REMARK VINA RESULT:      -7.4     17.874     20.679
REMARK  3 active torsions:
REMARK  status: ('A' for Active; 'I' for Inactive)
REMARK    1  A    between atoms: C_23  and  C_25 
REMARK    2  A    between atoms: C_25  and  N_26 
REMARK    3  A    between atoms: C_32  and  N_33 
ROOT
HETATM    1  C   UNK     0     -20.968  23.514   5.811  0.00  0.00     0.000 C 
HETATM    2  O   UNK     0     -22.183  23.429   4.870  0.00  0.00     0.000 OA
HETATM    3  C   UNK     0     -23.035  24.682   4.598  0.00  0.00     0.054 A 
HETATM    4  C   UNK     0     -22.672  26.021   5.268  0.00  0.00     0.052 A 
HETATM    5  C   UNK     0     -23.525  27.274   4.996  0.00  0.00     0.054 A 
HETATM    6  C   UNK     0     -24.740  27.189   4.054  0.00  0.00     0.076 A 
HETATM    7  C   UNK     0     -25.103  25.851   3.384  0.00  0.00     0.095 A 
HETATM    8  N   UNK     0     -24.251  24.598   3.655  0.00  0.00    -0.306 N 
HETATM    9  C   UNK     0     -26.318  25.766   2.442  0.00  0.00     0.095 A 
HETATM   10  C   UNK     0     -27.171  27.020   2.170  0.00  0.00     0.011 A 
HETATM   11  C   UNK     0     -28.386  26.935   1.228  0.00  0.00     0.034 A 
HETATM   12  C   UNK     0     -29.238  28.188   0.956  0.00  0.00     0.039 A 
HETATM   13  C   UNK     0     -28.875  29.527   1.626  0.00  0.00     0.020 A 
HETATM   14  C   UNK     0     -27.660  29.611   2.568  0.00  0.00     0.079 A 
HETATM   15  C   UNK     0     -26.808  28.358   2.840  0.00  0.00     0.061 A 
HETATM   16  N   UNK     0     -25.592  28.443   3.782  0.00  0.00    -0.253 NA
HETATM   17 Cl   UNK     0     -29.728  30.780   1.354  0.00  0.00    -0.091 Cl
HETATM   18  N   UNK     0     -26.681  24.428   1.772  0.00  0.00    -0.247 NA
HETATM   19  C   UNK     0     -25.829  23.175   2.044  0.00  0.00     0.079 A 
HETATM   20  C   UNK     0     -24.614  23.260   2.985  0.00  0.00     0.081 A 
HETATM   21  C   UNK     0     -23.761  22.006   3.257  0.00  0.00     0.059 A 
HETATM   22  C   UNK     0     -24.124  20.668   2.587  0.00  0.00     0.128 A 
HETATM   23  C   UNK     0     -25.340  20.583   1.645  0.00  0.00     0.009 A 
HETATM   24  C   UNK     0     -26.192  21.836   1.373  0.00  0.00     0.073 A 
HETATM   25  O   UNK     0     -23.272  19.414   2.859  0.00  0.00    -0.191 OA
HETATM   26  C   UNK     0     -22.546  22.091   4.199  0.00  0.00     0.075 A 
ENDROOT
BRANCH  23  27
HETATM   27  C   UNK     0     -25.703  19.245   0.975  0.00  0.00     0.122 C 
BRANCH  27  28
HETATM   28  N   UNK     0     -25.868  17.976   1.830  0.00  0.00    -0.365 N 
HETATM   29  C   UNK     0     -26.598  17.884   3.183  0.00  0.00     0.097 A 
HETATM   30  C   UNK     0     -26.514  16.425   3.672  0.00  0.00     0.026 A 
HETATM   31  C   UNK     0     -25.732  15.616   2.620  0.00  0.00     0.026 A 
HETATM   32  C   UNK     0     -25.333  16.574   1.482  0.00  0.00     0.097 A 
ENDBRANCH  27  28
ENDBRANCH  23  27
BRANCH  26  33
HETATM   33  N   UNK     0     -21.694  20.837   4.471  0.00  0.00    -0.347 N 
HETATM   34  C   UNK     0     -20.471  20.380   3.655  0.00  0.00     0.102 A 
HETATM   35  C   UNK     0     -19.935  19.081   4.285  0.00  0.00     0.026 A 
HETATM   36  C   UNK     0     -20.828  18.735   5.492  0.00  0.00     0.026 A 
HETATM   37  C   UNK     0     -21.915  19.821   5.607  0.00  0.00     0.102 A 
ENDBRANCH  26  33
TORSDOF 3
ENDMDL
MODEL 10
REMARK VINA RESULT:      -7.3      9.062     12.455
REMARK  3 active torsions:
REMARK  status: ('A' for Active; 'I' for Inactive)
REMARK    1  A    between atoms: C_23  and  C_25 
REMARK    2  A    between atoms: C_25  and  N_26 
REMARK    3  A    between atoms: C_32  and  N_33 
ROOT
HETATM    1  C   UNK     0     -36.911  32.136 -13.470  0.00  0.00     0.000 C 
HETATM    2  O   UNK     0     -36.325  31.314 -14.633  0.00  0.00     0.000 OA
HETATM    3  C   UNK     0     -34.910  30.717 -14.519  0.00  0.00     0.054 A 
HETATM    4  C   UNK     0     -34.081  30.941 -13.240  0.00  0.00     0.052 A 
HETATM    5  C   UNK     0     -32.666  30.344 -13.126  0.00  0.00     0.054 A 
HETATM    6  C   UNK     0     -32.081  29.523 -14.289  0.00  0.00     0.076 A 
HETATM    7  C   UNK     0     -32.910  29.298 -15.567  0.00  0.00     0.095 A 
HETATM    8  N   UNK     0     -34.324  29.895 -15.682  0.00  0.00    -0.306 N 
HETATM    9  C   UNK     0     -32.324  28.476 -16.730  0.00  0.00     0.095 A 
HETATM   10  C   UNK     0     -30.909  27.879 -16.615  0.00  0.00     0.011 A 
HETATM   11  C   UNK     0     -30.324  27.058 -17.778  0.00  0.00     0.034 A 
HETATM   12  C   UNK     0     -28.909  26.460 -17.664  0.00  0.00     0.039 A 
HETATM   13  C   UNK     0     -28.080  26.685 -16.385  0.00  0.00     0.020 A 
HETATM   14  C   UNK     0     -28.666  27.507 -15.222  0.00  0.00     0.079 A 
HETATM   15  C   UNK     0     -30.080  28.103 -15.337  0.00  0.00     0.061 A 
HETATM   16  N   UNK     0     -30.666  28.925 -14.174  0.00  0.00    -0.253 NA
HETATM   17 Cl   UNK     0     -26.665  26.087 -16.271  0.00  0.00    -0.091 Cl
HETATM   18  N   UNK     0     -33.153  28.252 -18.008  0.00  0.00    -0.247 NA
HETATM   19  C   UNK     0     -34.568  28.849 -18.123  0.00  0.00     0.079 A 
HETATM   20  C   UNK     0     -35.153  29.671 -16.960  0.00  0.00     0.081 A 
HETATM   21  C   UNK     0     -36.568  30.268 -17.075  0.00  0.00     0.059 A 
HETATM   22  C   UNK     0     -37.398  30.043 -18.353  0.00  0.00     0.128 A 
HETATM   23  C   UNK     0     -36.812  29.221 -19.517  0.00  0.00     0.009 A 
HETATM   24  C   UNK     0     -35.397  28.625 -19.401  0.00  0.00     0.073 A 
HETATM   25  O   UNK     0     -38.813  30.641 -18.468  0.00  0.00    -0.191 OA
HETATM   26  C   UNK     0     -37.154  31.090 -15.912  0.00  0.00     0.075 A 
ENDROOT
BRANCH  23  27
HETATM   27  C   UNK     0     -37.641  28.997 -20.795  0.00  0.00     0.122 C 
BRANCH  27  28
HETATM   28  N   UNK     0     -36.939  28.910 -22.162  0.00  0.00    -0.365 N 
HETATM   29  C   UNK     0     -36.800  27.646 -23.031  0.00  0.00     0.097 A 
HETATM   30  C   UNK     0     -36.028  28.028 -24.308  0.00  0.00     0.026 A 
HETATM   31  C   UNK     0     -35.690  29.528 -24.229  0.00  0.00     0.026 A 
HETATM   32  C   UNK     0     -36.253  30.073 -22.903  0.00  0.00     0.097 A 
ENDBRANCH  27  28
ENDBRANCH  23  27
BRANCH  26  33
HETATM   33  N   UNK     0     -38.569  31.687 -16.027  0.00  0.00    -0.347 N 
HETATM   34  C   UNK     0     -38.918  33.094 -16.545  0.00  0.00     0.102 A 
HETATM   35  C   UNK     0     -40.448  33.260 -16.483  0.00  0.00     0.026 A 
HETATM   36  C   UNK     0     -41.045  31.953 -15.926  0.00  0.00     0.026 A 
HETATM   37  C   UNK     0     -39.884  30.981 -15.644  0.00  0.00     0.102 A 
ENDBRANCH  26  33
TORSDOF 3
ENDMDL
