MODEL 1
REMARK VINA RESULT:      -8.9      0.000      0.000
REMARK  2 active torsions:
REMARK  status: ('A' for Active; 'I' for Inactive)
REMARK    1  A    between atoms: C_23  and  C_24 
REMARK    2  A    between atoms: C_24  and  C_25 
ROOT
HETATM    1  C   UNK     0     -32.556   9.181  26.428  0.00  0.00     0.014 A 
HETATM    2  C   UNK     0     -32.404   7.652  26.529  0.00  0.00     0.172 A 
HETATM    3  C   UNK     0     -33.332   9.800  25.251  0.00  0.00     0.044 A 
HETATM    4  O   UNK     0     -33.029   6.741  25.452  0.00  0.00    -0.321 OA
HETATM    5  C   UNK     0     -33.805   7.359  24.274  0.00  0.00     0.192 A 
HETATM    6  O   UNK     0     -31.683   7.908  27.702  0.00  0.00     0.000 OA
HETATM    7  O   UNK     0     -31.742   6.654  27.492  0.00  0.00     0.000 OA
HETATM    8  C   UNK     0     -31.885  10.068  27.578  0.00  0.00     0.049 A 
HETATM    9  C   UNK     0     -30.953   6.946  28.774  0.00  0.00    -0.001 A 
HETATM   10  C   UNK     0     -33.956   8.889  24.173  0.00  0.00     0.000 A 
HETATM   11  O   UNK     0     -31.147   8.537  28.613  0.00  0.00     0.000 OA
HETATM   12  C   UNK     0     -33.365  11.306  25.336  0.00  0.00    -0.002 A 
HETATM   13  C   UNK     0     -31.018   9.726  28.927  0.00  0.00    -0.029 A 
HETATM   14  O   UNK     0     -34.427   6.442  23.200  0.00  0.00    -0.262 OA
HETATM   15  C   UNK     0     -31.982  11.615  27.565  0.00  0.00    -0.005 A 
HETATM   16  C   UNK     0     -32.753  12.210  26.393  0.00  0.00    -0.001 A 
HETATM   17  C   UNK     0     -30.624   8.315  29.424  0.00  0.00    -0.006 A 
HETATM   18  C   UNK     0     -30.410   5.711  29.525  0.00  0.00    -0.000 C 
HETATM   19  C   UNK     0     -34.732   9.507  22.995  0.00  0.00     0.052 A 
HETATM   20  C   UNK     0     -31.355  12.520  28.646  0.00  0.00    -0.001 C 
HETATM   21  C   UNK     0     -35.200   7.070  22.026  0.00  0.00     0.227 A 
HETATM   22  O   UNK     0     -35.824   6.160  20.951  0.00  0.00    -0.164 OA
HETATM   23  C   UNK     0     -35.350   8.600  21.928  0.00  0.00     0.020 A 
ENDROOT
BRANCH  23  24
HETATM   24  C   UNK     0     -36.125   9.224  20.753  0.00  0.00     0.124 C 
BRANCH  24  25
HETATM   25  C   UNK     0     -35.752  10.629  20.245  0.00  0.00     0.190 C 
HETATM   26  O   UNK     0     -34.957  10.789  18.935  0.00  0.00    -0.647 OA
HETATM   27  O   UNK     0     -36.174  11.875  21.046  0.00  0.00    -0.647 OA
ENDBRANCH  24  25
ENDBRANCH  23  24
TORSDOF 2
ENDMDL
MODEL 2
REMARK VINA RESULT:      -8.9     49.102     51.150
REMARK  2 active torsions:
REMARK  status: ('A' for Active; 'I' for Inactive)
REMARK    1  A    between atoms: C_23  and  C_24 
REMARK    2  A    between atoms: C_24  and  C_25 
ROOT
HETATM    1  C   UNK     0     -24.223  33.655 -17.925  0.00  0.00     0.014 A 
HETATM    2  C   UNK     0     -24.505  35.149 -18.171  0.00  0.00     0.172 A 
HETATM    3  C   UNK     0     -25.171  32.589 -18.505  0.00  0.00     0.044 A 
HETATM    4  O   UNK     0     -25.736  35.577 -18.997  0.00  0.00    -0.321 OA
HETATM    5  C   UNK     0     -26.685  34.511 -19.577  0.00  0.00     0.192 A 
HETATM    6  O   UNK     0     -23.346  35.382 -17.420  0.00  0.00     0.000 OA
HETATM    7  O   UNK     0     -23.851  36.488 -17.797  0.00  0.00     0.000 OA
HETATM    8  C   UNK     0     -22.931  33.279 -17.061  0.00  0.00     0.049 A 
HETATM    9  C   UNK     0     -22.581  36.731 -16.972  0.00  0.00    -0.001 A 
HETATM   10  C   UNK     0     -26.402  33.017 -19.331  0.00  0.00     0.000 A 
HETATM   11  O   UNK     0     -22.341  35.154 -16.750  0.00  0.00     0.000 OA
HETATM   12  C   UNK     0     -24.721  31.193 -18.152  0.00  0.00    -0.002 A 
HETATM   13  C   UNK     0     -21.754  34.152 -16.324  0.00  0.00    -0.029 A 
HETATM   14  O   UNK     0     -27.914  34.947 -20.402  0.00  0.00    -0.262 OA
HETATM   15  C   UNK     0     -22.562  31.804 -16.759  0.00  0.00    -0.005 A 
HETATM   16  C   UNK     0     -23.511  30.764 -17.339  0.00  0.00    -0.001 A 
HETATM   17  C   UNK     0     -21.637  35.694 -16.310  0.00  0.00    -0.006 A 
HETATM   18  C   UNK     0     -22.183  38.209 -16.771  0.00  0.00    -0.000 C 
HETATM   19  C   UNK     0     -27.351  31.951 -19.911  0.00  0.00     0.052 A 
HETATM   20  C   UNK     0     -21.329  31.384 -15.931  0.00  0.00    -0.001 C 
HETATM   21  C   UNK     0     -28.856  33.874 -20.978  0.00  0.00     0.227 A 
HETATM   22  O   UNK     0     -30.085  34.301 -21.802  0.00  0.00    -0.164 OA
HETATM   23  C   UNK     0     -28.571  32.380 -20.729  0.00  0.00     0.020 A 
ENDROOT
BRANCH  23  24
HETATM   24  C   UNK     0     -29.516  31.309 -21.306  0.00  0.00     0.124 C 
BRANCH  24  25
HETATM   25  C   UNK     0     -28.936  30.053 -21.981  0.00  0.00     0.190 C 
HETATM   26  O   UNK     0     -28.221  30.170 -23.341  0.00  0.00    -0.647 OA
HETATM   27  O   UNK     0     -29.069  28.680 -21.297  0.00  0.00    -0.647 OA
ENDBRANCH  24  25
ENDBRANCH  23  24
TORSDOF 2
ENDMDL
MODEL 3
REMARK VINA RESULT:      -8.7     51.335     54.075
REMARK  2 active torsions:
REMARK  status: ('A' for Active; 'I' for Inactive)
REMARK    1  A    between atoms: C_23  and  C_24 
REMARK    2  A    between atoms: C_24  and  C_25 
ROOT
HETATM    1  C   UNK     0     -35.319  11.044 -28.124  0.00  0.00     0.014 A 
HETATM    2  C   UNK     0     -34.888  10.659 -29.551  0.00  0.00     0.172 A 
HETATM    3  C   UNK     0     -36.727  10.676 -27.620  0.00  0.00     0.044 A 
HETATM    4  O   UNK     0     -35.867   9.904 -30.476  0.00  0.00    -0.321 OA
HETATM    5  C   UNK     0     -37.275   9.536 -29.973  0.00  0.00     0.192 A 
HETATM    6  O   UNK     0     -33.670  11.271 -29.235  0.00  0.00     0.000 OA
HETATM    7  O   UNK     0     -33.635  10.820 -30.425  0.00  0.00     0.000 OA
HETATM    8  C   UNK     0     -34.257  11.825 -27.217  0.00  0.00     0.049 A 
HETATM    9  C   UNK     0     -32.304  11.494 -30.067  0.00  0.00    -0.001 A 
HETATM   10  C   UNK     0     -37.705   9.922 -28.545  0.00  0.00     0.000 A 
HETATM   11  O   UNK     0     -32.813  11.869 -28.586  0.00  0.00     0.000 OA
HETATM   12  C   UNK     0     -36.950  11.141 -26.202  0.00  0.00    -0.002 A 
HETATM   13  C   UNK     0     -32.721  12.350 -27.450  0.00  0.00    -0.029 A 
HETATM   14  O   UNK     0     -38.248   8.781 -30.903  0.00  0.00    -0.262 OA
HETATM   15  C   UNK     0     -34.595  12.256 -25.767  0.00  0.00    -0.005 A 
HETATM   16  C   UNK     0     -35.992  11.884 -25.286  0.00  0.00    -0.001 A 
HETATM   17  C   UNK     0     -31.886  12.180 -28.741  0.00  0.00    -0.006 A 
HETATM   18  C   UNK     0     -31.230  11.491 -31.177  0.00  0.00    -0.000 C 
HETATM   19  C   UNK     0     -39.113   9.553 -28.042  0.00  0.00     0.052 A 
HETATM   20  C   UNK     0     -33.611  13.011 -24.849  0.00  0.00    -0.001 C 
HETATM   21  C   UNK     0     -39.654   8.418 -30.390  0.00  0.00     0.227 A 
HETATM   22  O   UNK     0     -40.631   7.665 -31.313  0.00  0.00    -0.164 OA
HETATM   23  C   UNK     0     -40.081   8.805 -28.961  0.00  0.00     0.020 A 
ENDROOT
BRANCH  23  24
HETATM   24  C   UNK     0     -41.488   8.440 -28.452  0.00  0.00     0.124 C 
BRANCH  24  25
HETATM   25  C   UNK     0     -41.842   6.971 -28.158  0.00  0.00     0.190 C 
HETATM   26  O   UNK     0     -43.309   6.505 -28.220  0.00  0.00    -0.647 OA
HETATM   27  O   UNK     0     -40.730   5.967 -27.801  0.00  0.00    -0.647 OA
ENDBRANCH  24  25
ENDBRANCH  23  24
TORSDOF 2
ENDMDL
MODEL 4
REMARK VINA RESULT:      -8.7     48.503     50.696
REMARK  2 active torsions:
REMARK  status: ('A' for Active; 'I' for Inactive)
REMARK    1  A    between atoms: C_23  and  C_24 
REMARK    2  A    between atoms: C_24  and  C_25 
ROOT
HETATM    1  C   UNK     0     -24.250  32.835 -17.719  0.00  0.00     0.014 A 
HETATM    2  C   UNK     0     -25.183  33.930 -18.268  0.00  0.00     0.172 A 
HETATM    3  C   UNK     0     -22.960  33.228 -16.976  0.00  0.00     0.044 A 
HETATM    4  O   UNK     0     -24.825  35.419 -18.075  0.00  0.00    -0.321 OA
HETATM    5  C   UNK     0     -23.534  35.812 -17.332  0.00  0.00     0.192 A 
HETATM    6  O   UNK     0     -25.982  32.873 -18.721  0.00  0.00     0.000 OA
HETATM    7  O   UNK     0     -26.512  33.986 -19.038  0.00  0.00     0.000 OA
HETATM    8  C   UNK     0     -24.680  31.312 -17.953  0.00  0.00     0.049 A 
HETATM    9  C   UNK     0     -27.380  32.820 -19.528  0.00  0.00    -0.001 A 
HETATM   10  C   UNK     0     -22.602  34.716 -16.783  0.00  0.00     0.000 A 
HETATM   11  O   UNK     0     -26.364  31.723 -18.931  0.00  0.00     0.000 OA
HETATM   12  C   UNK     0     -22.189  32.014 -16.519  0.00  0.00    -0.002 A 
HETATM   13  C   UNK     0     -25.954  30.583 -18.683  0.00  0.00    -0.029 A 
HETATM   14  O   UNK     0     -23.183  37.303 -17.143  0.00  0.00    -0.262 OA
HETATM   15  C   UNK     0     -23.808  30.139 -17.438  0.00  0.00    -0.005 A 
HETATM   16  C   UNK     0     -22.535  30.546 -16.706  0.00  0.00    -0.001 A 
HETATM   17  C   UNK     0     -27.139  31.296 -19.375  0.00  0.00    -0.006 A 
HETATM   18  C   UNK     0     -28.671  33.213 -20.279  0.00  0.00    -0.000 C 
HETATM   19  C   UNK     0     -21.311  35.110 -16.040  0.00  0.00     0.052 A 
HETATM   20  C   UNK     0     -24.172  28.653 -17.635  0.00  0.00    -0.001 C 
HETATM   21  C   UNK     0     -21.890  37.685 -16.399  0.00  0.00     0.227 A 
HETATM   22  O   UNK     0     -21.533  39.171 -16.206  0.00  0.00    -0.164 OA
HETATM   23  C   UNK     0     -20.959  36.587 -15.850  0.00  0.00     0.020 A 
ENDROOT
BRANCH  23  24
HETATM   24  C   UNK     0     -19.667  36.973 -15.107  0.00  0.00     0.124 C 
BRANCH  24  25
HETATM   25  C   UNK     0     -19.668  37.088 -13.571  0.00  0.00     0.190 C 
HETATM   26  O   UNK     0     -20.526  38.164 -12.880  0.00  0.00    -0.647 OA
HETATM   27  O   UNK     0     -18.810  36.127 -12.727  0.00  0.00    -0.647 OA
ENDBRANCH  24  25
ENDBRANCH  23  24
TORSDOF 2
ENDMDL
MODEL 5
REMARK VINA RESULT:      -8.7     30.876     35.489
REMARK  2 active torsions:
REMARK  status: ('A' for Active; 'I' for Inactive)
REMARK    1  A    between atoms: C_23  and  C_24 
REMARK    2  A    between atoms: C_24  and  C_25 
ROOT
HETATM    1  C   UNK     0     -25.523  33.241  -0.573  0.00  0.00     0.014 A 
HETATM    2  C   UNK     0     -26.877  33.972  -0.525  0.00  0.00     0.172 A 
HETATM    3  C   UNK     0     -25.365  31.871   0.113  0.00  0.00     0.044 A 
HETATM    4  O   UNK     0     -28.075  33.333   0.209  0.00  0.00    -0.321 OA
HETATM    5  C   UNK     0     -27.917  31.963   0.896  0.00  0.00     0.192 A 
HETATM    6  O   UNK     0     -26.243  34.972  -1.271  0.00  0.00     0.000 OA
HETATM    7  O   UNK     0     -27.454  35.296  -1.051  0.00  0.00     0.000 OA
HETATM    8  C   UNK     0     -24.323  33.957  -1.350  0.00  0.00     0.049 A 
HETATM    9  C   UNK     0     -26.749  36.385  -1.868  0.00  0.00    -0.001 A 
HETATM   10  C   UNK     0     -26.562  31.233   0.848  0.00  0.00     0.000 A 
HETATM   11  O   UNK     0     -25.359  35.571  -1.882  0.00  0.00     0.000 OA
HETATM   12  C   UNK     0     -23.968  31.325  -0.048  0.00  0.00    -0.002 A 
HETATM   13  C   UNK     0     -24.171  35.373  -2.163  0.00  0.00    -0.029 A 
HETATM   14  O   UNK     0     -29.119  31.331   1.629  0.00  0.00    -0.262 OA
HETATM   15  C   UNK     0     -22.922  33.302  -1.454  0.00  0.00    -0.005 A 
HETATM   16  C   UNK     0     -22.784  31.948  -0.770  0.00  0.00    -0.001 A 
HETATM   17  C   UNK     0     -25.282  36.429  -2.370  0.00  0.00    -0.006 A 
HETATM   18  C   UNK     0     -27.613  37.608  -2.245  0.00  0.00    -0.000 C 
HETATM   19  C   UNK     0     -26.405  29.863   1.535  0.00  0.00     0.052 A 
HETATM   20  C   UNK     0     -21.729  33.947  -2.191  0.00  0.00    -0.001 C 
HETATM   21  C   UNK     0     -28.951  29.961   2.312  0.00  0.00     0.227 A 
HETATM   22  O   UNK     0     -30.146  29.324   3.045  0.00  0.00    -0.164 OA
HETATM   23  C   UNK     0     -27.594  29.233   2.262  0.00  0.00     0.020 A 
ENDROOT
BRANCH  23  24
HETATM   24  C   UNK     0     -27.431  27.863   2.947  0.00  0.00     0.124 C 
BRANCH  24  25
HETATM   25  C   UNK     0     -28.133  26.623   2.365  0.00  0.00     0.190 C 
HETATM   26  O   UNK     0     -28.238  25.334   3.201  0.00  0.00    -0.647 OA
HETATM   27  O   UNK     0     -28.729  26.671   0.945  0.00  0.00    -0.647 OA
ENDBRANCH  24  25
ENDBRANCH  23  24
TORSDOF 2
ENDMDL
MODEL 6
REMARK VINA RESULT:      -8.5     35.073     38.653
REMARK  2 active torsions:
REMARK  status: ('A' for Active; 'I' for Inactive)
REMARK    1  A    between atoms: C_23  and  C_24 
REMARK    2  A    between atoms: C_24  and  C_25 
ROOT
HETATM    1  C   UNK     0     -24.173  33.486  -1.368  0.00  0.00     0.014 A 
HETATM    2  C   UNK     0     -24.160  34.828  -2.123  0.00  0.00     0.172 A 
HETATM    3  C   UNK     0     -22.885  32.647  -1.271  0.00  0.00     0.044 A 
HETATM    4  O   UNK     0     -22.858  35.332  -2.781  0.00  0.00    -0.321 OA
HETATM    5  C   UNK     0     -21.570  34.493  -2.685  0.00  0.00     0.192 A 
HETATM    6  O   UNK     0     -25.514  34.913  -1.778  0.00  0.00     0.000 OA
HETATM    7  O   UNK     0     -25.171  35.938  -2.451  0.00  0.00     0.000 OA
HETATM    8  C   UNK     0     -25.554  33.022  -0.708  0.00  0.00     0.049 A 
HETATM    9  C   UNK     0     -26.654  36.020  -2.067  0.00  0.00    -0.001 A 
HETATM   10  C   UNK     0     -21.583  33.151  -1.930  0.00  0.00     0.000 A 
HETATM   11  O   UNK     0     -26.603  34.609  -1.293  0.00  0.00     0.000 OA
HETATM   12  C   UNK     0     -23.107  31.373  -0.494  0.00  0.00    -0.002 A 
HETATM   13  C   UNK     0     -27.059  33.667  -0.634  0.00  0.00    -0.029 A 
HETATM   14  O   UNK     0     -20.272  35.003  -3.346  0.00  0.00    -0.262 OA
HETATM   15  C   UNK     0     -25.668  31.687   0.071  0.00  0.00    -0.005 A 
HETATM   16  C   UNK     0     -24.385  30.870   0.157  0.00  0.00    -0.001 A 
HETATM   17  C   UNK     0     -27.507  35.011  -1.256  0.00  0.00    -0.006 A 
HETATM   18  C   UNK     0     -27.405  37.278  -2.554  0.00  0.00    -0.000 C 
HETATM   19  C   UNK     0     -20.295  32.312  -1.834  0.00  0.00     0.052 A 
HETATM   20  C   UNK     0     -26.974  31.190   0.727  0.00  0.00    -0.001 C 
HETATM   21  C   UNK     0     -18.990  34.157  -3.244  0.00  0.00     0.227 A 
HETATM   22  O   UNK     0     -17.691  34.660  -3.901  0.00  0.00    -0.164 OA
HETATM   23  C   UNK     0     -19.006  32.815  -2.488  0.00  0.00     0.020 A 
ENDROOT
BRANCH  23  24
HETATM   24  C   UNK     0     -17.722  31.972  -2.388  0.00  0.00     0.124 C 
BRANCH  24  25
HETATM   25  C   UNK     0     -17.362  30.981  -3.511  0.00  0.00     0.190 C 
HETATM   26  O   UNK     0     -15.979  30.304  -3.526  0.00  0.00    -0.647 OA
HETATM   27  O   UNK     0     -18.386  30.666  -4.617  0.00  0.00    -0.647 OA
ENDBRANCH  24  25
ENDBRANCH  23  24
TORSDOF 2
ENDMDL
MODEL 7
REMARK VINA RESULT:      -8.4     37.343     38.791
REMARK  2 active torsions:
REMARK  status: ('A' for Active; 'I' for Inactive)
REMARK    1  A    between atoms: C_23  and  C_24 
REMARK    2  A    between atoms: C_24  and  C_25 
ROOT
HETATM    1  C   UNK     0     -30.971  17.874 -12.268  0.00  0.00     0.014 A 
HETATM    2  C   UNK     0     -30.914  16.729 -13.297  0.00  0.00     0.172 A 
HETATM    3  C   UNK     0     -32.323  18.302 -11.670  0.00  0.00     0.044 A 
HETATM    4  O   UNK     0     -32.210  16.013 -13.728  0.00  0.00    -0.321 OA
HETATM    5  C   UNK     0     -33.564  16.440 -13.130  0.00  0.00     0.192 A 
HETATM    6  O   UNK     0     -29.532  16.957 -13.315  0.00  0.00     0.000 OA
HETATM    7  O   UNK     0     -29.828  16.010 -14.112  0.00  0.00     0.000 OA
HETATM    8  C   UNK     0     -29.591  18.575 -11.865  0.00  0.00     0.049 A 
HETATM    9  C   UNK     0     -28.316  16.268 -14.124  0.00  0.00    -0.001 A 
HETATM   10  C   UNK     0     -33.620  17.585 -12.100  0.00  0.00     0.000 A 
HETATM   11  O   UNK     0     -28.442  17.457 -13.045  0.00  0.00     0.000 OA
HETATM   12  C   UNK     0     -32.164  19.435 -10.686  0.00  0.00    -0.002 A 
HETATM   13  C   UNK     0     -28.026  18.359 -12.307  0.00  0.00    -0.029 A 
HETATM   14  O   UNK     0     -34.857  15.719 -13.565  0.00  0.00    -0.262 OA
HETATM   15  C   UNK     0     -29.544  19.735 -10.838  0.00  0.00    -0.005 A 
HETATM   16  C   UNK     0     -30.890  20.145 -10.257  0.00  0.00    -0.001 A 
HETATM   17  C   UNK     0     -27.502  17.316 -13.321  0.00  0.00    -0.006 A 
HETATM   18  C   UNK     0     -27.487  15.365 -15.062  0.00  0.00    -0.000 C 
HETATM   19  C   UNK     0     -34.974  18.013 -11.502  0.00  0.00     0.052 A 
HETATM   20  C   UNK     0     -28.243  20.447 -10.412  0.00  0.00    -0.001 C 
HETATM   21  C   UNK     0     -36.205  16.154 -12.961  0.00  0.00     0.227 A 
HETATM   22  O   UNK     0     -37.499  15.439 -13.391  0.00  0.00    -0.164 OA
HETATM   23  C   UNK     0     -36.257  17.300 -11.932  0.00  0.00     0.020 A 
ENDROOT
BRANCH  23  24
HETATM   24  C   UNK     0     -37.608  17.732 -11.331  0.00  0.00     0.124 C 
BRANCH  24  25
HETATM   25  C   UNK     0     -37.908  19.226 -11.108  0.00  0.00     0.190 C 
HETATM   26  O   UNK     0     -38.316  19.729  -9.711  0.00  0.00    -0.647 OA
HETATM   27  O   UNK     0     -37.801  20.216 -12.282  0.00  0.00    -0.647 OA
ENDBRANCH  24  25
ENDBRANCH  23  24
TORSDOF 2
ENDMDL
MODEL 8
REMARK VINA RESULT:      -8.2     49.522     53.559
REMARK  2 active torsions:
REMARK  status: ('A' for Active; 'I' for Inactive)
REMARK    1  A    between atoms: C_23  and  C_24 
REMARK    2  A    between atoms: C_24  and  C_25 
ROOT
HETATM    1  C   UNK     0     -32.609  10.632 -28.699  0.00  0.00     0.014 A 
HETATM    2  C   UNK     0     -31.132  10.367 -29.043  0.00  0.00     0.172 A 
HETATM    3  C   UNK     0     -32.971  11.623 -27.577  0.00  0.00     0.044 A 
HETATM    4  O   UNK     0     -30.015  11.093 -28.264  0.00  0.00    -0.321 OA
HETATM    5  C   UNK     0     -30.376  12.084 -27.142  0.00  0.00     0.192 A 
HETATM    6  O   UNK     0     -31.626   9.487 -30.014  0.00  0.00     0.000 OA
HETATM    7  O   UNK     0     -30.354   9.497 -30.043  0.00  0.00     0.000 OA
HETATM    8  C   UNK     0     -33.717   9.847 -29.544  0.00  0.00     0.049 A 
HETATM    9  C   UNK     0     -30.906   8.536 -31.103  0.00  0.00    -0.001 A 
HETATM   10  C   UNK     0     -31.854  12.349 -26.799  0.00  0.00     0.000 A 
HETATM   11  O   UNK     0     -32.431   8.856 -30.696  0.00  0.00     0.000 OA
HETATM   12  C   UNK     0     -34.464  11.740 -27.398  0.00  0.00    -0.002 A 
HETATM   13  C   UNK     0     -33.663   8.757 -30.768  0.00  0.00    -0.029 A 
HETATM   14  O   UNK     0     -29.253  12.807 -26.368  0.00  0.00    -0.262 OA
HETATM   15  C   UNK     0     -35.230  10.045 -29.274  0.00  0.00    -0.005 A 
HETATM   16  C   UNK     0     -35.570  11.029 -28.161  0.00  0.00    -0.001 A 
HETATM   17  C   UNK     0     -32.383   8.198 -31.434  0.00  0.00    -0.006 A 
HETATM   18  C   UNK     0     -29.852   7.801 -31.959  0.00  0.00    -0.000 C 
HETATM   19  C   UNK     0     -32.215  13.340 -25.676  0.00  0.00     0.052 A 
HETATM   20  C   UNK     0     -36.342   9.316 -30.057  0.00  0.00    -0.001 C 
HETATM   21  C   UNK     0     -29.625  13.795 -25.247  0.00  0.00     0.227 A 
HETATM   22  O   UNK     0     -28.510  14.520 -24.470  0.00  0.00    -0.164 OA
HETATM   23  C   UNK     0     -31.104  14.058 -24.906  0.00  0.00     0.020 A 
ENDROOT
BRANCH  23  24
HETATM   24  C   UNK     0     -31.472  15.048 -23.785  0.00  0.00     0.124 C 
BRANCH  24  25
HETATM   25  C   UNK     0     -31.656  16.542 -24.107  0.00  0.00     0.190 C 
HETATM   26  O   UNK     0     -30.828  17.196 -25.229  0.00  0.00    -0.647 OA
HETATM   27  O   UNK     0     -32.670  17.383 -23.309  0.00  0.00    -0.647 OA
ENDBRANCH  24  25
ENDBRANCH  23  24
TORSDOF 2
ENDMDL
MODEL 9
REMARK VINA RESULT:      -8.2     52.393     54.650
REMARK  2 active torsions:
REMARK  status: ('A' for Active; 'I' for Inactive)
REMARK    1  A    between atoms: C_23  and  C_24 
REMARK    2  A    between atoms: C_24  and  C_25 
ROOT
HETATM    1  C   UNK     0     -33.496   9.992 -29.271  0.00  0.00     0.014 A 
HETATM    2  C   UNK     0     -33.765   8.924 -30.346  0.00  0.00     0.172 A 
HETATM    3  C   UNK     0     -34.676  10.681 -28.561  0.00  0.00     0.044 A 
HETATM    4  O   UNK     0     -35.215   8.543 -30.712  0.00  0.00    -0.321 OA
HETATM    5  C   UNK     0     -36.396   9.231 -30.002  0.00  0.00     0.192 A 
HETATM    6  O   UNK     0     -32.371   8.835 -30.454  0.00  0.00     0.000 OA
HETATM    7  O   UNK     0     -32.924   8.024 -31.266  0.00  0.00     0.000 OA
HETATM    8  C   UNK     0     -31.970  10.340 -28.939  0.00  0.00     0.049 A 
HETATM    9  C   UNK     0     -31.397   7.935 -31.375  0.00  0.00    -0.001 A 
HETATM   10  C   UNK     0     -36.126  10.300 -28.926  0.00  0.00     0.000 A 
HETATM   11  O   UNK     0     -31.181   9.060 -30.243  0.00  0.00     0.000 OA
HETATM   12  C   UNK     0     -34.202  11.692 -27.546  0.00  0.00    -0.002 A 
HETATM   13  C   UNK     0     -30.527   9.803 -29.501  0.00  0.00    -0.029 A 
HETATM   14  O   UNK     0     -37.843   8.845 -30.373  0.00  0.00    -0.262 OA
HETATM   15  C   UNK     0     -31.597  11.401 -27.873  0.00  0.00    -0.005 A 
HETATM   16  C   UNK     0     -32.777  12.072 -27.181  0.00  0.00    -0.001 A 
HETATM   17  C   UNK     0     -30.317   8.726 -30.591  0.00  0.00    -0.006 A 
HETATM   18  C   UNK     0     -30.855   6.921 -32.406  0.00  0.00    -0.000 C 
HETATM   19  C   UNK     0     -37.307  10.988 -28.216  0.00  0.00     0.052 A 
HETATM   20  C   UNK     0     -30.144  11.777 -27.513  0.00  0.00    -0.001 C 
HETATM   21  C   UNK     0     -39.017   9.539 -29.657  0.00  0.00     0.227 A 
HETATM   22  O   UNK     0     -40.464   9.159 -30.022  0.00  0.00    -0.164 OA
HETATM   23  C   UNK     0     -38.744  10.608 -28.581  0.00  0.00     0.020 A 
ENDROOT
BRANCH  23  24
HETATM   24  C   UNK     0     -39.920  11.300 -27.867  0.00  0.00     0.124 C 
BRANCH  24  25
HETATM   25  C   UNK     0     -39.791  12.765 -27.413  0.00  0.00     0.190 C 
HETATM   26  O   UNK     0     -39.469  13.089 -25.942  0.00  0.00    -0.647 OA
HETATM   27  O   UNK     0     -39.983  13.906 -28.429  0.00  0.00    -0.647 OA
ENDBRANCH  24  25
ENDBRANCH  23  24
TORSDOF 2
ENDMDL
MODEL 10
REMARK VINA RESULT:      -8.0     30.085     34.596
REMARK  2 active torsions:
REMARK  status: ('A' for Active; 'I' for Inactive)
REMARK    1  A    between atoms: C_23  and  C_24 
REMARK    2  A    between atoms: C_24  and  C_25 
ROOT
HETATM    1  C   UNK     0     -27.608  34.532   1.858  0.00  0.00     0.014 A 
HETATM    2  C   UNK     0     -27.699  34.468   0.322  0.00  0.00     0.172 A 
HETATM    3  C   UNK     0     -27.731  33.242   2.689  0.00  0.00     0.044 A 
HETATM    4  O   UNK     0     -27.913  33.112  -0.383  0.00  0.00    -0.321 OA
HETATM    5  C   UNK     0     -28.036  31.821   0.448  0.00  0.00     0.192 A 
HETATM    6  O   UNK     0     -27.517  35.856   0.360  0.00  0.00     0.000 OA
HETATM    7  O   UNK     0     -27.633  35.464  -0.845  0.00  0.00     0.000 OA
HETATM    8  C   UNK     0     -27.386  35.968   2.527  0.00  0.00     0.049 A 
HETATM    9  C   UNK     0     -27.432  36.984  -0.792  0.00  0.00    -0.001 A 
HETATM   10  C   UNK     0     -27.945  31.886   1.984  0.00  0.00     0.000 A 
HETATM   11  O   UNK     0     -27.346  36.985   0.816  0.00  0.00     0.000 OA
HETATM   12  C   UNK     0     -27.616  33.518   4.168  0.00  0.00    -0.002 A 
HETATM   13  C   UNK     0     -27.220  37.490   1.938  0.00  0.00    -0.029 A 
HETATM   14  O   UNK     0     -28.250  30.469  -0.264  0.00  0.00    -0.262 OA
HETATM   15  C   UNK     0     -27.282  36.137   4.064  0.00  0.00    -0.005 A 
HETATM   16  C   UNK     0     -27.405  34.850   4.870  0.00  0.00    -0.001 A 
HETATM   17  C   UNK     0     -27.247  37.898   0.447  0.00  0.00    -0.006 A 
HETATM   18  C   UNK     0     -27.412  37.707  -2.156  0.00  0.00    -0.000 C 
HETATM   19  C   UNK     0     -28.068  30.594   2.815  0.00  0.00     0.052 A 
HETATM   20  C   UNK     0     -27.068  37.496   4.762  0.00  0.00    -0.001 C 
HETATM   21  C   UNK     0     -28.372  29.184   0.575  0.00  0.00     0.227 A 
HETATM   22  O   UNK     0     -28.585  27.831  -0.128  0.00  0.00    -0.164 OA
HETATM   23  C   UNK     0     -28.280  29.252   2.112  0.00  0.00     0.020 A 
ENDROOT
BRANCH  23  24
HETATM   24  C   UNK     0     -28.402  27.965   2.948  0.00  0.00     0.124 C 
BRANCH  24  25
HETATM   25  C   UNK     0     -29.790  27.366   3.242  0.00  0.00     0.190 C 
HETATM   26  O   UNK     0     -30.745  28.079   4.218  0.00  0.00    -0.647 OA
HETATM   27  O   UNK     0     -30.224  26.056   2.559  0.00  0.00    -0.647 OA
ENDBRANCH  24  25
ENDBRANCH  23  24
TORSDOF 2
ENDMDL
